<?xml version="1.0" encoding="UTF-8"?>

<!-- generated on 2025-06-08 01:03:00 by Eclipse SUMO netedit Version 1.18.0
<configuration xmlns:xsi="http://www.w3.org/2001/XMLSchema-instance" xsi:noNamespaceSchemaLocation="http://sumo.dlr.de/xsd/neteditConfiguration.xsd">

    <input>
        <sumo-net-file value="E:\workspace\workspace2\workspace2\new\Dynamic-Traffic-light-management-system-main_sumo_rl\src\maps\jinan12\anon_3_4_jinan_real_5495.net.xml"/>
    </input>

    <output>
        <output-file value="E:\workspace\workspace2\workspace2\new\Dynamic-Traffic-light-management-system-main_sumo_rl\src\maps\jinan12\anon_3_4_jinan_real_5495.net.xml"/>
    </output>

    <processing>
        <geometry.min-radius.fix.railways value="false"/>
        <geometry.max-grade.fix value="false"/>
        <offset.disable-normalization value="true"/>
        <lefthand value="0"/>
    </processing>

    <junctions>
        <no-turnarounds value="true"/>
        <junctions.corner-detail value="5"/>
        <junctions.limit-turn-speed value="5.50"/>
        <rectangular-lane-cut value="0"/>
    </junctions>

    <pedestrian>
        <walkingareas value="0"/>
    </pedestrian>

</configuration>
-->

<net version="1.16" junctionCornerDetail="5" limitTurnSpeed="5.50" xmlns:xsi="http://www.w3.org/2001/XMLSchema-instance" xsi:noNamespaceSchemaLocation="http://sumo.dlr.de/xsd/net_file.xsd">

    <location netOffset="400.00,800.00" convBoundary="0.00,0.00,2000.00,3200.00" origBoundary="-400.00,-800.00,1600.00,2400.00" projParameter="!"/>

    <edge id=":intersection_0_1_0" function="internal">
        <lane id=":intersection_0_1_0_0" index="0" speed="3.65" length="4.67" shape="0.00,801.60 -1.20,800.80 -1.60,800.00 -1.20,799.20 0.00,798.40"/>
    </edge>
    <edge id=":intersection_0_2_0" function="internal">
        <lane id=":intersection_0_2_0_0" index="0" speed="3.65" length="4.67" shape="0.00,1601.60 -1.20,1600.80 -1.60,1600.00 -1.20,1599.20 0.00,1598.40"/>
    </edge>
    <edge id=":intersection_0_3_0" function="internal">
        <lane id=":intersection_0_3_0_0" index="0" speed="3.65" length="4.67" shape="0.00,2401.60 -1.20,2400.80 -1.60,2400.00 -1.20,2399.20 0.00,2398.40"/>
    </edge>
    <edge id=":intersection_1_0_0" function="internal">
        <lane id=":intersection_1_0_0_0" index="0" speed="3.65" length="4.67" shape="398.40,0.00 399.20,-1.20 400.00,-1.60 400.80,-1.20 401.60,0.00"/>
    </edge>
    <edge id=":intersection_1_1_0" function="internal">
        <lane id=":intersection_1_1_0_0" index="0" speed="6.51" length="9.03" shape="392.00,813.60 391.65,811.15 390.60,809.40 388.85,808.35 386.40,808.00"/>
        <lane id=":intersection_1_1_0_1" index="1" speed="7.33" length="11.73" shape="392.00,813.60 391.65,809.75 390.60,807.00 388.85,805.35 386.40,804.80"/>
        <lane id=":intersection_1_1_0_2" index="2" speed="8.10" length="14.57" shape="392.00,813.60 391.65,808.35 390.60,804.60 388.85,802.35 386.40,801.60"/>
    </edge>
    <edge id=":intersection_1_1_3" function="internal">
        <lane id=":intersection_1_1_3_0" index="0" speed="11.11" length="27.37" shape="395.20,813.60 394.70,805.50 393.60,800.00 392.50,794.50 392.00,786.40"/>
        <lane id=":intersection_1_1_3_1" index="1" speed="11.11" length="27.37" shape="395.20,813.60 395.20,786.40"/>
        <lane id=":intersection_1_1_3_2" index="2" speed="11.11" length="27.37" shape="395.20,813.60 395.70,805.50 396.80,800.00 397.90,794.50 398.40,786.40"/>
    </edge>
    <edge id=":intersection_1_1_6" function="internal">
        <lane id=":intersection_1_1_6_0" index="0" speed="11.11" length="11.62" shape="398.40,813.60 399.35,804.15 400.17,802.20"/>
        <lane id=":intersection_1_1_6_1" index="1" speed="10.88" length="8.63" shape="398.40,813.60 399.35,805.55 399.58,805.08"/>
        <lane id=":intersection_1_1_6_2" index="2" speed="10.36" length="6.91" shape="398.40,813.60 399.35,806.95 399.45,806.78"/>
    </edge>
    <edge id=":intersection_1_1_36" function="internal">
        <lane id=":intersection_1_1_36_0" index="0" speed="11.11" length="18.24" shape="400.17,802.20 402.20,797.40 406.95,793.35 413.60,792.00"/>
    </edge>
    <edge id=":intersection_1_1_37" function="internal">
        <lane id=":intersection_1_1_37_0" index="0" speed="10.88" length="18.51" shape="399.58,805.08 402.20,799.80 406.95,796.35 413.60,795.20"/>
    </edge>
    <edge id=":intersection_1_1_38" function="internal">
        <lane id=":intersection_1_1_38_0" index="0" speed="10.36" length="17.60" shape="399.45,806.78 402.20,802.20 406.95,799.35 413.60,798.40"/>
    </edge>
    <edge id=":intersection_1_1_9" function="internal">
        <lane id=":intersection_1_1_9_0" index="0" speed="6.51" length="9.03" shape="413.60,808.00 411.15,808.35 409.40,809.40 408.35,811.15 408.00,813.60"/>
        <lane id=":intersection_1_1_9_1" index="1" speed="7.33" length="11.73" shape="413.60,808.00 409.75,808.35 407.00,809.40 405.35,811.15 404.80,813.60"/>
        <lane id=":intersection_1_1_9_2" index="2" speed="8.10" length="14.57" shape="413.60,808.00 408.35,808.35 404.60,809.40 402.35,811.15 401.60,813.60"/>
    </edge>
    <edge id=":intersection_1_1_12" function="internal">
        <lane id=":intersection_1_1_12_0" index="0" speed="11.11" length="27.37" shape="413.60,804.80 405.50,805.30 400.00,806.40 394.50,807.50 386.40,808.00"/>
        <lane id=":intersection_1_1_12_1" index="1" speed="11.11" length="27.37" shape="413.60,804.80 386.40,804.80"/>
        <lane id=":intersection_1_1_12_2" index="2" speed="11.11" length="27.37" shape="413.60,804.80 405.50,804.30 400.00,803.20 394.50,802.10 386.40,801.60"/>
    </edge>
    <edge id=":intersection_1_1_15" function="internal">
        <lane id=":intersection_1_1_15_0" index="0" speed="11.11" length="11.62" shape="413.60,801.60 404.15,800.65 402.20,799.83"/>
        <lane id=":intersection_1_1_15_1" index="1" speed="10.88" length="8.63" shape="413.60,801.60 405.55,800.65 405.08,800.42"/>
        <lane id=":intersection_1_1_15_2" index="2" speed="10.36" length="6.91" shape="413.60,801.60 406.95,800.65 406.78,800.55"/>
    </edge>
    <edge id=":intersection_1_1_39" function="internal">
        <lane id=":intersection_1_1_39_0" index="0" speed="11.11" length="18.24" shape="402.20,799.83 397.40,797.80 393.35,793.05 392.00,786.40"/>
    </edge>
    <edge id=":intersection_1_1_40" function="internal">
        <lane id=":intersection_1_1_40_0" index="0" speed="10.88" length="18.51" shape="405.08,800.42 399.80,797.80 396.35,793.05 395.20,786.40"/>
    </edge>
    <edge id=":intersection_1_1_41" function="internal">
        <lane id=":intersection_1_1_41_0" index="0" speed="10.36" length="17.60" shape="406.78,800.55 402.20,797.80 399.35,793.05 398.40,786.40"/>
    </edge>
    <edge id=":intersection_1_1_18" function="internal">
        <lane id=":intersection_1_1_18_0" index="0" speed="6.51" length="9.03" shape="408.00,786.40 408.35,788.85 409.40,790.60 411.15,791.65 413.60,792.00"/>
        <lane id=":intersection_1_1_18_1" index="1" speed="7.33" length="11.73" shape="408.00,786.40 408.35,790.25 409.40,793.00 411.15,794.65 413.60,795.20"/>
        <lane id=":intersection_1_1_18_2" index="2" speed="8.10" length="14.57" shape="408.00,786.40 408.35,791.65 409.40,795.40 411.15,797.65 413.60,798.40"/>
    </edge>
    <edge id=":intersection_1_1_21" function="internal">
        <lane id=":intersection_1_1_21_0" index="0" speed="11.11" length="27.37" shape="404.80,786.40 405.30,794.50 406.40,800.00 407.50,805.50 408.00,813.60"/>
        <lane id=":intersection_1_1_21_1" index="1" speed="11.11" length="27.37" shape="404.80,786.40 404.80,813.60"/>
        <lane id=":intersection_1_1_21_2" index="2" speed="11.11" length="27.37" shape="404.80,786.40 404.30,794.50 403.20,800.00 402.10,805.50 401.60,813.60"/>
    </edge>
    <edge id=":intersection_1_1_24" function="internal">
        <lane id=":intersection_1_1_24_0" index="0" speed="11.11" length="11.62" shape="401.60,786.40 400.65,795.85 399.83,797.80"/>
        <lane id=":intersection_1_1_24_1" index="1" speed="10.88" length="8.63" shape="401.60,786.40 400.65,794.45 400.42,794.92"/>
        <lane id=":intersection_1_1_24_2" index="2" speed="10.36" length="6.91" shape="401.60,786.40 400.65,793.05 400.55,793.22"/>
    </edge>
    <edge id=":intersection_1_1_42" function="internal">
        <lane id=":intersection_1_1_42_0" index="0" speed="11.11" length="18.24" shape="399.83,797.80 397.80,802.60 393.05,806.65 386.40,808.00"/>
    </edge>
    <edge id=":intersection_1_1_43" function="internal">
        <lane id=":intersection_1_1_43_0" index="0" speed="10.88" length="18.51" shape="400.42,794.92 397.80,800.20 393.05,803.65 386.40,804.80"/>
    </edge>
    <edge id=":intersection_1_1_44" function="internal">
        <lane id=":intersection_1_1_44_0" index="0" speed="10.36" length="17.60" shape="400.55,793.22 397.80,797.80 393.05,800.65 386.40,801.60"/>
    </edge>
    <edge id=":intersection_1_1_27" function="internal">
        <lane id=":intersection_1_1_27_0" index="0" speed="6.51" length="9.03" shape="386.40,792.00 388.85,791.65 390.60,790.60 391.65,788.85 392.00,786.40"/>
        <lane id=":intersection_1_1_27_1" index="1" speed="7.33" length="11.73" shape="386.40,792.00 390.25,791.65 393.00,790.60 394.65,788.85 395.20,786.40"/>
        <lane id=":intersection_1_1_27_2" index="2" speed="8.10" length="14.57" shape="386.40,792.00 391.65,791.65 395.40,790.60 397.65,788.85 398.40,786.40"/>
    </edge>
    <edge id=":intersection_1_1_30" function="internal">
        <lane id=":intersection_1_1_30_0" index="0" speed="11.11" length="27.37" shape="386.40,795.20 394.50,794.70 400.00,793.60 405.50,792.50 413.60,792.00"/>
        <lane id=":intersection_1_1_30_1" index="1" speed="11.11" length="27.37" shape="386.40,795.20 413.60,795.20"/>
        <lane id=":intersection_1_1_30_2" index="2" speed="11.11" length="27.37" shape="386.40,795.20 394.50,795.70 400.00,796.80 405.50,797.90 413.60,798.40"/>
    </edge>
    <edge id=":intersection_1_1_33" function="internal">
        <lane id=":intersection_1_1_33_0" index="0" speed="11.11" length="11.62" shape="386.40,798.40 395.85,799.35 397.80,800.17"/>
        <lane id=":intersection_1_1_33_1" index="1" speed="10.88" length="8.63" shape="386.40,798.40 394.45,799.35 394.92,799.58"/>
        <lane id=":intersection_1_1_33_2" index="2" speed="10.36" length="6.91" shape="386.40,798.40 393.05,799.35 393.22,799.45"/>
    </edge>
    <edge id=":intersection_1_1_45" function="internal">
        <lane id=":intersection_1_1_45_0" index="0" speed="11.11" length="18.24" shape="397.80,800.17 402.60,802.20 406.65,806.95 408.00,813.60"/>
    </edge>
    <edge id=":intersection_1_1_46" function="internal">
        <lane id=":intersection_1_1_46_0" index="0" speed="10.88" length="18.51" shape="394.92,799.58 400.20,802.20 403.65,806.95 404.80,813.60"/>
    </edge>
    <edge id=":intersection_1_1_47" function="internal">
        <lane id=":intersection_1_1_47_0" index="0" speed="10.36" length="17.60" shape="393.22,799.45 397.80,802.20 400.65,806.95 401.60,813.60"/>
    </edge>
    <edge id=":intersection_1_2_0" function="internal">
        <lane id=":intersection_1_2_0_0" index="0" speed="6.51" length="9.03" shape="392.00,1613.60 391.65,1611.15 390.60,1609.40 388.85,1608.35 386.40,1608.00"/>
        <lane id=":intersection_1_2_0_1" index="1" speed="7.33" length="11.73" shape="392.00,1613.60 391.65,1609.75 390.60,1607.00 388.85,1605.35 386.40,1604.80"/>
        <lane id=":intersection_1_2_0_2" index="2" speed="8.10" length="14.57" shape="392.00,1613.60 391.65,1608.35 390.60,1604.60 388.85,1602.35 386.40,1601.60"/>
    </edge>
    <edge id=":intersection_1_2_3" function="internal">
        <lane id=":intersection_1_2_3_0" index="0" speed="11.11" length="27.37" shape="395.20,1613.60 394.70,1605.50 393.60,1600.00 392.50,1594.50 392.00,1586.40"/>
        <lane id=":intersection_1_2_3_1" index="1" speed="11.11" length="27.37" shape="395.20,1613.60 395.20,1586.40"/>
        <lane id=":intersection_1_2_3_2" index="2" speed="11.11" length="27.37" shape="395.20,1613.60 395.70,1605.50 396.80,1600.00 397.90,1594.50 398.40,1586.40"/>
    </edge>
    <edge id=":intersection_1_2_6" function="internal">
        <lane id=":intersection_1_2_6_0" index="0" speed="11.11" length="11.62" shape="398.40,1613.60 399.35,1604.15 400.17,1602.20"/>
        <lane id=":intersection_1_2_6_1" index="1" speed="10.88" length="8.63" shape="398.40,1613.60 399.35,1605.55 399.58,1605.08"/>
        <lane id=":intersection_1_2_6_2" index="2" speed="10.36" length="6.91" shape="398.40,1613.60 399.35,1606.95 399.45,1606.78"/>
    </edge>
    <edge id=":intersection_1_2_36" function="internal">
        <lane id=":intersection_1_2_36_0" index="0" speed="11.11" length="18.24" shape="400.17,1602.20 402.20,1597.40 406.95,1593.35 413.60,1592.00"/>
    </edge>
    <edge id=":intersection_1_2_37" function="internal">
        <lane id=":intersection_1_2_37_0" index="0" speed="10.88" length="18.51" shape="399.58,1605.08 402.20,1599.80 406.95,1596.35 413.60,1595.20"/>
    </edge>
    <edge id=":intersection_1_2_38" function="internal">
        <lane id=":intersection_1_2_38_0" index="0" speed="10.36" length="17.60" shape="399.45,1606.78 402.20,1602.20 406.95,1599.35 413.60,1598.40"/>
    </edge>
    <edge id=":intersection_1_2_9" function="internal">
        <lane id=":intersection_1_2_9_0" index="0" speed="6.51" length="9.03" shape="413.60,1608.00 411.15,1608.35 409.40,1609.40 408.35,1611.15 408.00,1613.60"/>
        <lane id=":intersection_1_2_9_1" index="1" speed="7.33" length="11.73" shape="413.60,1608.00 409.75,1608.35 407.00,1609.40 405.35,1611.15 404.80,1613.60"/>
        <lane id=":intersection_1_2_9_2" index="2" speed="8.10" length="14.57" shape="413.60,1608.00 408.35,1608.35 404.60,1609.40 402.35,1611.15 401.60,1613.60"/>
    </edge>
    <edge id=":intersection_1_2_12" function="internal">
        <lane id=":intersection_1_2_12_0" index="0" speed="11.11" length="27.37" shape="413.60,1604.80 405.50,1605.30 400.00,1606.40 394.50,1607.50 386.40,1608.00"/>
        <lane id=":intersection_1_2_12_1" index="1" speed="11.11" length="27.37" shape="413.60,1604.80 386.40,1604.80"/>
        <lane id=":intersection_1_2_12_2" index="2" speed="11.11" length="27.37" shape="413.60,1604.80 405.50,1604.30 400.00,1603.20 394.50,1602.10 386.40,1601.60"/>
    </edge>
    <edge id=":intersection_1_2_15" function="internal">
        <lane id=":intersection_1_2_15_0" index="0" speed="11.11" length="11.62" shape="413.60,1601.60 404.15,1600.65 402.20,1599.83"/>
        <lane id=":intersection_1_2_15_1" index="1" speed="10.88" length="8.63" shape="413.60,1601.60 405.55,1600.65 405.08,1600.42"/>
        <lane id=":intersection_1_2_15_2" index="2" speed="10.36" length="6.91" shape="413.60,1601.60 406.95,1600.65 406.78,1600.55"/>
    </edge>
    <edge id=":intersection_1_2_39" function="internal">
        <lane id=":intersection_1_2_39_0" index="0" speed="11.11" length="18.24" shape="402.20,1599.83 397.40,1597.80 393.35,1593.05 392.00,1586.40"/>
    </edge>
    <edge id=":intersection_1_2_40" function="internal">
        <lane id=":intersection_1_2_40_0" index="0" speed="10.88" length="18.51" shape="405.08,1600.42 399.80,1597.80 396.35,1593.05 395.20,1586.40"/>
    </edge>
    <edge id=":intersection_1_2_41" function="internal">
        <lane id=":intersection_1_2_41_0" index="0" speed="10.36" length="17.60" shape="406.78,1600.55 402.20,1597.80 399.35,1593.05 398.40,1586.40"/>
    </edge>
    <edge id=":intersection_1_2_18" function="internal">
        <lane id=":intersection_1_2_18_0" index="0" speed="6.51" length="9.03" shape="408.00,1586.40 408.35,1588.85 409.40,1590.60 411.15,1591.65 413.60,1592.00"/>
        <lane id=":intersection_1_2_18_1" index="1" speed="7.33" length="11.73" shape="408.00,1586.40 408.35,1590.25 409.40,1593.00 411.15,1594.65 413.60,1595.20"/>
        <lane id=":intersection_1_2_18_2" index="2" speed="8.10" length="14.57" shape="408.00,1586.40 408.35,1591.65 409.40,1595.40 411.15,1597.65 413.60,1598.40"/>
    </edge>
    <edge id=":intersection_1_2_21" function="internal">
        <lane id=":intersection_1_2_21_0" index="0" speed="11.11" length="27.37" shape="404.80,1586.40 405.30,1594.50 406.40,1600.00 407.50,1605.50 408.00,1613.60"/>
        <lane id=":intersection_1_2_21_1" index="1" speed="11.11" length="27.37" shape="404.80,1586.40 404.80,1613.60"/>
        <lane id=":intersection_1_2_21_2" index="2" speed="11.11" length="27.37" shape="404.80,1586.40 404.30,1594.50 403.20,1600.00 402.10,1605.50 401.60,1613.60"/>
    </edge>
    <edge id=":intersection_1_2_24" function="internal">
        <lane id=":intersection_1_2_24_0" index="0" speed="11.11" length="11.62" shape="401.60,1586.40 400.65,1595.85 399.83,1597.80"/>
        <lane id=":intersection_1_2_24_1" index="1" speed="10.88" length="8.63" shape="401.60,1586.40 400.65,1594.45 400.42,1594.92"/>
        <lane id=":intersection_1_2_24_2" index="2" speed="10.36" length="6.91" shape="401.60,1586.40 400.65,1593.05 400.55,1593.22"/>
    </edge>
    <edge id=":intersection_1_2_42" function="internal">
        <lane id=":intersection_1_2_42_0" index="0" speed="11.11" length="18.24" shape="399.83,1597.80 397.80,1602.60 393.05,1606.65 386.40,1608.00"/>
    </edge>
    <edge id=":intersection_1_2_43" function="internal">
        <lane id=":intersection_1_2_43_0" index="0" speed="10.88" length="18.51" shape="400.42,1594.92 397.80,1600.20 393.05,1603.65 386.40,1604.80"/>
    </edge>
    <edge id=":intersection_1_2_44" function="internal">
        <lane id=":intersection_1_2_44_0" index="0" speed="10.36" length="17.60" shape="400.55,1593.22 397.80,1597.80 393.05,1600.65 386.40,1601.60"/>
    </edge>
    <edge id=":intersection_1_2_27" function="internal">
        <lane id=":intersection_1_2_27_0" index="0" speed="6.51" length="9.03" shape="386.40,1592.00 388.85,1591.65 390.60,1590.60 391.65,1588.85 392.00,1586.40"/>
        <lane id=":intersection_1_2_27_1" index="1" speed="7.33" length="11.73" shape="386.40,1592.00 390.25,1591.65 393.00,1590.60 394.65,1588.85 395.20,1586.40"/>
        <lane id=":intersection_1_2_27_2" index="2" speed="8.10" length="14.57" shape="386.40,1592.00 391.65,1591.65 395.40,1590.60 397.65,1588.85 398.40,1586.40"/>
    </edge>
    <edge id=":intersection_1_2_30" function="internal">
        <lane id=":intersection_1_2_30_0" index="0" speed="11.11" length="27.37" shape="386.40,1595.20 394.50,1594.70 400.00,1593.60 405.50,1592.50 413.60,1592.00"/>
        <lane id=":intersection_1_2_30_1" index="1" speed="11.11" length="27.37" shape="386.40,1595.20 413.60,1595.20"/>
        <lane id=":intersection_1_2_30_2" index="2" speed="11.11" length="27.37" shape="386.40,1595.20 394.50,1595.70 400.00,1596.80 405.50,1597.90 413.60,1598.40"/>
    </edge>
    <edge id=":intersection_1_2_33" function="internal">
        <lane id=":intersection_1_2_33_0" index="0" speed="11.11" length="11.62" shape="386.40,1598.40 395.85,1599.35 397.80,1600.17"/>
        <lane id=":intersection_1_2_33_1" index="1" speed="10.88" length="8.63" shape="386.40,1598.40 394.45,1599.35 394.92,1599.58"/>
        <lane id=":intersection_1_2_33_2" index="2" speed="10.36" length="6.91" shape="386.40,1598.40 393.05,1599.35 393.22,1599.45"/>
    </edge>
    <edge id=":intersection_1_2_45" function="internal">
        <lane id=":intersection_1_2_45_0" index="0" speed="11.11" length="18.24" shape="397.80,1600.17 402.60,1602.20 406.65,1606.95 408.00,1613.60"/>
    </edge>
    <edge id=":intersection_1_2_46" function="internal">
        <lane id=":intersection_1_2_46_0" index="0" speed="10.88" length="18.51" shape="394.92,1599.58 400.20,1602.20 403.65,1606.95 404.80,1613.60"/>
    </edge>
    <edge id=":intersection_1_2_47" function="internal">
        <lane id=":intersection_1_2_47_0" index="0" speed="10.36" length="17.60" shape="393.22,1599.45 397.80,1602.20 400.65,1606.95 401.60,1613.60"/>
    </edge>
    <edge id=":intersection_1_3_0" function="internal">
        <lane id=":intersection_1_3_0_0" index="0" speed="6.51" length="9.03" shape="392.00,2413.60 391.65,2411.15 390.60,2409.40 388.85,2408.35 386.40,2408.00"/>
        <lane id=":intersection_1_3_0_1" index="1" speed="7.33" length="11.73" shape="392.00,2413.60 391.65,2409.75 390.60,2407.00 388.85,2405.35 386.40,2404.80"/>
        <lane id=":intersection_1_3_0_2" index="2" speed="8.10" length="14.57" shape="392.00,2413.60 391.65,2408.35 390.60,2404.60 388.85,2402.35 386.40,2401.60"/>
    </edge>
    <edge id=":intersection_1_3_3" function="internal">
        <lane id=":intersection_1_3_3_0" index="0" speed="11.11" length="27.37" shape="395.20,2413.60 394.70,2405.50 393.60,2400.00 392.50,2394.50 392.00,2386.40"/>
        <lane id=":intersection_1_3_3_1" index="1" speed="11.11" length="27.37" shape="395.20,2413.60 395.20,2386.40"/>
        <lane id=":intersection_1_3_3_2" index="2" speed="11.11" length="27.37" shape="395.20,2413.60 395.70,2405.50 396.80,2400.00 397.90,2394.50 398.40,2386.40"/>
    </edge>
    <edge id=":intersection_1_3_6" function="internal">
        <lane id=":intersection_1_3_6_0" index="0" speed="11.11" length="11.62" shape="398.40,2413.60 399.35,2404.15 400.17,2402.20"/>
        <lane id=":intersection_1_3_6_1" index="1" speed="10.88" length="8.63" shape="398.40,2413.60 399.35,2405.55 399.58,2405.08"/>
        <lane id=":intersection_1_3_6_2" index="2" speed="10.36" length="6.91" shape="398.40,2413.60 399.35,2406.95 399.45,2406.78"/>
    </edge>
    <edge id=":intersection_1_3_36" function="internal">
        <lane id=":intersection_1_3_36_0" index="0" speed="11.11" length="18.24" shape="400.17,2402.20 402.20,2397.40 406.95,2393.35 413.60,2392.00"/>
    </edge>
    <edge id=":intersection_1_3_37" function="internal">
        <lane id=":intersection_1_3_37_0" index="0" speed="10.88" length="18.51" shape="399.58,2405.08 402.20,2399.80 406.95,2396.35 413.60,2395.20"/>
    </edge>
    <edge id=":intersection_1_3_38" function="internal">
        <lane id=":intersection_1_3_38_0" index="0" speed="10.36" length="17.60" shape="399.45,2406.78 402.20,2402.20 406.95,2399.35 413.60,2398.40"/>
    </edge>
    <edge id=":intersection_1_3_9" function="internal">
        <lane id=":intersection_1_3_9_0" index="0" speed="6.51" length="9.03" shape="413.60,2408.00 411.15,2408.35 409.40,2409.40 408.35,2411.15 408.00,2413.60"/>
        <lane id=":intersection_1_3_9_1" index="1" speed="7.33" length="11.73" shape="413.60,2408.00 409.75,2408.35 407.00,2409.40 405.35,2411.15 404.80,2413.60"/>
        <lane id=":intersection_1_3_9_2" index="2" speed="8.10" length="14.57" shape="413.60,2408.00 408.35,2408.35 404.60,2409.40 402.35,2411.15 401.60,2413.60"/>
    </edge>
    <edge id=":intersection_1_3_12" function="internal">
        <lane id=":intersection_1_3_12_0" index="0" speed="11.11" length="27.37" shape="413.60,2404.80 405.50,2405.30 400.00,2406.40 394.50,2407.50 386.40,2408.00"/>
        <lane id=":intersection_1_3_12_1" index="1" speed="11.11" length="27.37" shape="413.60,2404.80 386.40,2404.80"/>
        <lane id=":intersection_1_3_12_2" index="2" speed="11.11" length="27.37" shape="413.60,2404.80 405.50,2404.30 400.00,2403.20 394.50,2402.10 386.40,2401.60"/>
    </edge>
    <edge id=":intersection_1_3_15" function="internal">
        <lane id=":intersection_1_3_15_0" index="0" speed="11.11" length="11.62" shape="413.60,2401.60 404.15,2400.65 402.20,2399.83"/>
        <lane id=":intersection_1_3_15_1" index="1" speed="10.88" length="8.63" shape="413.60,2401.60 405.55,2400.65 405.08,2400.42"/>
        <lane id=":intersection_1_3_15_2" index="2" speed="10.36" length="6.91" shape="413.60,2401.60 406.95,2400.65 406.78,2400.55"/>
    </edge>
    <edge id=":intersection_1_3_39" function="internal">
        <lane id=":intersection_1_3_39_0" index="0" speed="11.11" length="18.24" shape="402.20,2399.83 397.40,2397.80 393.35,2393.05 392.00,2386.40"/>
    </edge>
    <edge id=":intersection_1_3_40" function="internal">
        <lane id=":intersection_1_3_40_0" index="0" speed="10.88" length="18.51" shape="405.08,2400.42 399.80,2397.80 396.35,2393.05 395.20,2386.40"/>
    </edge>
    <edge id=":intersection_1_3_41" function="internal">
        <lane id=":intersection_1_3_41_0" index="0" speed="10.36" length="17.60" shape="406.78,2400.55 402.20,2397.80 399.35,2393.05 398.40,2386.40"/>
    </edge>
    <edge id=":intersection_1_3_18" function="internal">
        <lane id=":intersection_1_3_18_0" index="0" speed="6.51" length="9.03" shape="408.00,2386.40 408.35,2388.85 409.40,2390.60 411.15,2391.65 413.60,2392.00"/>
        <lane id=":intersection_1_3_18_1" index="1" speed="7.33" length="11.73" shape="408.00,2386.40 408.35,2390.25 409.40,2393.00 411.15,2394.65 413.60,2395.20"/>
        <lane id=":intersection_1_3_18_2" index="2" speed="8.10" length="14.57" shape="408.00,2386.40 408.35,2391.65 409.40,2395.40 411.15,2397.65 413.60,2398.40"/>
    </edge>
    <edge id=":intersection_1_3_21" function="internal">
        <lane id=":intersection_1_3_21_0" index="0" speed="11.11" length="27.37" shape="404.80,2386.40 405.30,2394.50 406.40,2400.00 407.50,2405.50 408.00,2413.60"/>
        <lane id=":intersection_1_3_21_1" index="1" speed="11.11" length="27.37" shape="404.80,2386.40 404.80,2413.60"/>
        <lane id=":intersection_1_3_21_2" index="2" speed="11.11" length="27.37" shape="404.80,2386.40 404.30,2394.50 403.20,2400.00 402.10,2405.50 401.60,2413.60"/>
    </edge>
    <edge id=":intersection_1_3_24" function="internal">
        <lane id=":intersection_1_3_24_0" index="0" speed="11.11" length="11.62" shape="401.60,2386.40 400.65,2395.85 399.83,2397.80"/>
        <lane id=":intersection_1_3_24_1" index="1" speed="10.88" length="8.63" shape="401.60,2386.40 400.65,2394.45 400.42,2394.92"/>
        <lane id=":intersection_1_3_24_2" index="2" speed="10.36" length="6.91" shape="401.60,2386.40 400.65,2393.05 400.55,2393.22"/>
    </edge>
    <edge id=":intersection_1_3_42" function="internal">
        <lane id=":intersection_1_3_42_0" index="0" speed="11.11" length="18.24" shape="399.83,2397.80 397.80,2402.60 393.05,2406.65 386.40,2408.00"/>
    </edge>
    <edge id=":intersection_1_3_43" function="internal">
        <lane id=":intersection_1_3_43_0" index="0" speed="10.88" length="18.51" shape="400.42,2394.92 397.80,2400.20 393.05,2403.65 386.40,2404.80"/>
    </edge>
    <edge id=":intersection_1_3_44" function="internal">
        <lane id=":intersection_1_3_44_0" index="0" speed="10.36" length="17.60" shape="400.55,2393.22 397.80,2397.80 393.05,2400.65 386.40,2401.60"/>
    </edge>
    <edge id=":intersection_1_3_27" function="internal">
        <lane id=":intersection_1_3_27_0" index="0" speed="6.51" length="9.03" shape="386.40,2392.00 388.85,2391.65 390.60,2390.60 391.65,2388.85 392.00,2386.40"/>
        <lane id=":intersection_1_3_27_1" index="1" speed="7.33" length="11.73" shape="386.40,2392.00 390.25,2391.65 393.00,2390.60 394.65,2388.85 395.20,2386.40"/>
        <lane id=":intersection_1_3_27_2" index="2" speed="8.10" length="14.57" shape="386.40,2392.00 391.65,2391.65 395.40,2390.60 397.65,2388.85 398.40,2386.40"/>
    </edge>
    <edge id=":intersection_1_3_30" function="internal">
        <lane id=":intersection_1_3_30_0" index="0" speed="11.11" length="27.37" shape="386.40,2395.20 394.50,2394.70 400.00,2393.60 405.50,2392.50 413.60,2392.00"/>
        <lane id=":intersection_1_3_30_1" index="1" speed="11.11" length="27.37" shape="386.40,2395.20 413.60,2395.20"/>
        <lane id=":intersection_1_3_30_2" index="2" speed="11.11" length="27.37" shape="386.40,2395.20 394.50,2395.70 400.00,2396.80 405.50,2397.90 413.60,2398.40"/>
    </edge>
    <edge id=":intersection_1_3_33" function="internal">
        <lane id=":intersection_1_3_33_0" index="0" speed="11.11" length="11.62" shape="386.40,2398.40 395.85,2399.35 397.80,2400.17"/>
        <lane id=":intersection_1_3_33_1" index="1" speed="10.88" length="8.63" shape="386.40,2398.40 394.45,2399.35 394.92,2399.58"/>
        <lane id=":intersection_1_3_33_2" index="2" speed="10.36" length="6.91" shape="386.40,2398.40 393.05,2399.35 393.22,2399.45"/>
    </edge>
    <edge id=":intersection_1_3_45" function="internal">
        <lane id=":intersection_1_3_45_0" index="0" speed="11.11" length="18.24" shape="397.80,2400.17 402.60,2402.20 406.65,2406.95 408.00,2413.60"/>
    </edge>
    <edge id=":intersection_1_3_46" function="internal">
        <lane id=":intersection_1_3_46_0" index="0" speed="10.88" length="18.51" shape="394.92,2399.58 400.20,2402.20 403.65,2406.95 404.80,2413.60"/>
    </edge>
    <edge id=":intersection_1_3_47" function="internal">
        <lane id=":intersection_1_3_47_0" index="0" speed="10.36" length="17.60" shape="393.22,2399.45 397.80,2402.20 400.65,2406.95 401.60,2413.60"/>
    </edge>
    <edge id=":intersection_1_4_0" function="internal">
        <lane id=":intersection_1_4_0_0" index="0" speed="3.65" length="4.67" shape="401.60,3200.00 400.80,3201.20 400.00,3201.60 399.20,3201.20 398.40,3200.00"/>
    </edge>
    <edge id=":intersection_2_0_0" function="internal">
        <lane id=":intersection_2_0_0_0" index="0" speed="3.65" length="4.67" shape="798.40,0.00 799.20,-1.20 800.00,-1.60 800.80,-1.20 801.60,0.00"/>
    </edge>
    <edge id=":intersection_2_1_0" function="internal">
        <lane id=":intersection_2_1_0_0" index="0" speed="6.51" length="9.03" shape="792.00,813.60 791.65,811.15 790.60,809.40 788.85,808.35 786.40,808.00"/>
        <lane id=":intersection_2_1_0_1" index="1" speed="7.33" length="11.73" shape="792.00,813.60 791.65,809.75 790.60,807.00 788.85,805.35 786.40,804.80"/>
        <lane id=":intersection_2_1_0_2" index="2" speed="8.10" length="14.57" shape="792.00,813.60 791.65,808.35 790.60,804.60 788.85,802.35 786.40,801.60"/>
    </edge>
    <edge id=":intersection_2_1_3" function="internal">