<?xml version="1.0" encoding="utf-8"?>
<configuration>
	<input>
		<net-file value="anon_3_4_jinan_real_4366.net.xml"/>
		<route-files value="anon_3_4_jinan_real_4366.rou.xml"/>
	</input>
	<time>
		<begin value="0"/>
		<end value="3600"/>
	</time>
</configuration>
